sam1
ROCKS----1----*----2----*----3----*----4----*----5----*----6----*----7----*----8
SAND     2     2650.     .4500 2.000E-15 2.000E-15 2.000E-15      2.51      920.                                                                                                                                                                                                                             
 0.000E-00  
    7      0.627E+00 0.045E+00 1.000E+00 0.054E+00
    7      0.627E+00 0.040E+00 0.345E-03 1.000E+05 1.000E+00
BOUN1    2     2650.     .9900 2.000E-15 2.000E-15 2.000E-15      2.51   100000.
 0.000E-00 
    2      1.000E+01 
    7      0.627E+00 0.040E+00 0.345E-03 1.000E+10 1.000E+00               

PARAM----1--MOP:123456789012345678901234----*----5----*----6----*----7----*----8
   23000    9999100000900040000400203000          
 0.000E+00 3.000E+06 1.000E+03 1.000E+04          9.8100E+00

  100000.00000000000   10.01000000000000  20.000000000000000
TIMES----1----*----2----*----3----*----4----*----5----*----6----*----7----*----8
    1    9                1000
      1000     
MULTI----1----*----2----*----3----*----4----*----5----*----6----*----7----*----8
    2    3    2    6
ELEME----1----*----2----*----3----*----4----*----5----*----6----*----7----*----8
IN  0          SAND 0.7854E-030.7854E-02          0.0000E+000.0000E+00-.5000E-01
A1  1          SAND 0.7854E-030.7854E-02          0.0000E+000.0000E+000.5000E-01
A2  1          SAND 0.7854E-030.7854E-02          0.0000E+000.0000E+001.5000E-01
A3  1          SAND 0.7854E-030.7854E-02          0.0000E+000.0000E+002.5000E-01
A4  1          SAND 0.7854E-030.7854E-02          0.0000E+000.0000E+003.5000E-01
A5  1          SAND 0.7854E-030.7854E-02          0.0000E+000.0000E+004.5000E-01
A6  1          SAND 0.7854E-030.7854E-02          0.0000E+000.0000E+005.5000E-01
A7  1          SAND 0.7854E-030.7854E-02          0.0000E+000.0000E+006.5000E-01
A8  1          SAND 0.7854E-030.7854E-02          0.0000E+000.0000E+007.5000E-01
A9  1          SAND 0.7854E-030.7854E-02          0.0000E+000.0000E+008.5000E-01
AA  1          SAND 0.7854E-030.7854E-02          0.0000E+000.0000E+009.5000E-01
AB  1          SAND 0.7854E-030.7854E-02          0.0000E+000.0000E+001.0500E+00
AC  1          SAND 0.7854E-030.7854E-02          0.0000E+000.0000E+001.1500E+00
AD  1          SAND 0.7854E-030.7854E-02          0.0000E+000.0000E+001.2500E+00
AE  1          SAND 0.7854E-030.7854E-02          0.0000E+000.0000E+001.3500E+00
OUT 0          BOUN10.1000E+500.7854E-02          0.0000E+000.0000E+001.4000E+00

CONNE----1----*----2----*----3----*----4----*----5----*----6----*----7----*----8
IN  0A1  1                   3 .5000E-01 .5000E-01 .7854E-02-1.000E+00
A1  1A2  1                   3 .5000E-01 .5000E-01 .7854E-02-1.000E+00
A2  1A3  1                   3 .5000E-01 .5000E-01 .7854E-02-1.000E+00
A3  1A4  1                   3 .5000E-01 .5000E-01 .7854E-02-1.000E+00
A4  1A5  1                   3 .5000E-01 .5000E-01 .7854E-02-1.000E+00
A5  1A6  1                   3 .5000E-01 .5000E-01 .7854E-02-1.000E+00
A6  1A7  1                   3 .5000E-01 .5000E-01 .7854E-02-1.000E+00
A7  1A8  1                   3 .5000E-01 .5000E-01 .7854E-02-1.000E+00
A8  1A9  1                   3 .5000E-01 .5000E-01 .7854E-02-1.000E+00
A9  1AA  1                   3 .5000E-01 .5000E-01 .7854E-02-1.000E+00     
AA  1AB  1                   3 .5000E-01 .5000E-01 .7854E-02-1.000E+00
AB  1AC  1                   3 .5000E-01 .5000E-01 .7854E-02-1.000E+00
AC  1AD  1                   3 .5000E-01 .5000E-01 .7854E-02-1.000E+00
AD  1AE  1                   3 .5000E-01 .5000E-01 .7854E-02-1.000E+00
AE  1OUT 0                   3 .5000E-01 .5000E-01 .7854E-02-1.000E+00
                                                            
START----1----*----2----*----3----*----4----*----5----*----6----*----7----*----8
INCON----1----*----2----*----3----*----4----*----5----*----6----*----7----*----8
OUT 0
  100000.00000000000 10.9640000000000000  20.000000000000000
AE  1
  100500.00000000000 10.0550000000000000  20.000000000000000
AD  1                   
  101500.00000000000 10.0550000000000000  20.000000000000000
AC  1                  
  102500.00000000000 10.0550000000000000  20.000000000000000
AB  1                    
  103500.00000000000 10.0550000000000000  20.000000000000000
AA  1                   
  104500.00000000000 10.0550000000000000  20.000000000000000
A9  1                   
  105500.00000000000 10.0550000000000000  20.000000000000000
A8  1                  
  106500.00000000000 10.0550000000000000  20.000000000000000
A7  1                   
  107500.00000000000 10.0550000000000000  20.000000000000000
A6  1                   
  108500.00000000000 10.0550000000000000  20.000000000000000
A5  1                   
  109500.00000000000 10.0550000000000000  20.000000000000000
A4  1                  
  110500.00000000000 10.0550000000000000  20.000000000000000
A3  1                   
  111500.00000000000 10.0550000000000000  20.000000000000000
A2  1                  
  112500.00000000000 10.0550000000000000  20.000000000000000
A1  1                    
  113500.00000000000 10.0550000000000000  20.000000000000000
IN  0                    
  114500.00000000000 10.0550000000000000  20.000000000000000
  
GENER----1----*----2----*----3----*----4----*----5----*----6----*----7----*----8

ENDCY----1----*----2----*----3----*----4----*----5----*----6----*----7----*----8
