dp_model_flow
ROCKS----1----*----2----*----3----*----4----*----5----*----6----*----7----*----8
SAND1    22.6500e+033.5000e-012.0000e-112.0000e-112.0000e-112.5100e+009.2000e+02
1.0000e-070.0000e+000.0000e+001.0000e+00                              
    7      6.270e-01 4.500e-02 1.000e+00 5.400e-02
    7      6.270e-01 4.499e-02 5.000e-04 1.000e+08 1.000e+00
SAND2    22.6500e+033.5000e-012.0000e-112.0000e-112.0000e-112.5100e+009.2000e+02
1.0000e-070.0000e+000.0000e+001.0000e+00                              
    7      6.270e-01 4.500e-02 1.000e+00 5.400e-02
    7      6.270e-01 4.499e-02 5.000e-04 1.000e+08 1.000e+00
BOUN2    22.6500e+039.9000e-012.0000e-062.0000e-062.0000e-062.5100e+001.0000e+05
1.0000e-100.0000e+000.0000e+000.0000e+00                              
    1      1.000e-01 0.000e+00 1.000e+00 1.000e-01
    1      0.000e+00 0.000e+00 1.000e+00

PARAM----1----*----2----*----3----*----4----*----5----*----6----*----7----*----8
 8 29999    5000000000000000000400203000 1.800e+00 2.334e+00
 0.000e+00 3.154e+10-1.000e+00 1.000e+05          9.8100e+00                    
1.0000e+00                                                                      
1.0000e-05                                                  
1.01300000000000e+050.00000000000000e+001.09900000000000e+012.50000000000000e+01
                                                                                
START----1----*----2----*----3----*----4----*----5----*----6----*----7----*----8
MULTI----1----*----2----*----3----*----4----*----5----*----6----*----7----*----8
    3    3    2    6     
SELEC
    2
 1.013e+05 2.500e+01 1.025e+03                                                  
                                                                                
DIFFU
 2.130e-05 0.000e+00
 2.130e-05 1.000e-07
 2.130e-05 0.000e+00
ELEME----1----*----2----*----3----*----4----*----5----*----6----*----7----*----8
  a 1          SAND15.0000e-011.0000e+00           2.500e-01 1.000e+00-2.500e-01
  b 1          SAND15.0000e-011.0000e+00           7.500e-01 1.000e+00-2.500e-01
  c 1          SAND15.0000e-011.0000e+00           1.250e+00 1.000e+00-2.500e-01
  d 1          SAND15.0000e-011.0000e+00           1.750e+00 1.000e+00-2.500e-01
  e 1          SAND15.0000e-011.0000e+00           2.250e+00 1.000e+00-2.500e-01
  f 1          SAND15.0000e-011.0000e+00           2.750e+00 1.000e+00-2.500e-01
  g 1          SAND15.0000e-011.0000e+00           3.250e+00 1.000e+00-2.500e-01
  h 1          SAND15.0000e-011.0000e+00           3.750e+00 1.000e+00-2.500e-01
  i 1          SAND15.0000e-011.0000e+00           4.250e+00 1.000e+00-2.500e-01
  j 1          SAND15.0000e-011.0000e+00           4.750e+00 1.000e+00-2.500e-01
  k 1          SAND15.0000e-011.0000e+00           5.250e+00 1.000e+00-2.500e-01
  l 1          SAND15.0000e-011.0000e+00           5.750e+00 1.000e+00-2.500e-01
  m 1          SAND25.0000e-011.0000e+00           6.250e+00 1.000e+00-2.500e-01
  n 1          SAND25.0000e-011.0000e+00           6.750e+00 1.000e+00-2.500e-01
  o 1          SAND25.0000e-011.0000e+00           7.250e+00 1.000e+00-2.500e-01
  p 1          SAND25.0000e-011.0000e+00           7.750e+00 1.000e+00-2.500e-01
  q 1          SAND25.0000e-011.0000e+00           8.250e+00 1.000e+00-2.500e-01
  r 1          SAND25.0000e-011.0000e+00           8.750e+00 1.000e+00-2.500e-01
  s 1          SAND25.0000e-011.0000e+00           9.250e+00 1.000e+00-2.500e-01
  t 1          SAND25.0000e-011.0000e+00           9.750e+00 1.000e+00-2.500e-01
  u 1          SAND25.0000e-011.0000e+00           1.025e+01 1.000e+00-2.500e-01
  v 1          SAND25.0000e-011.0000e+00           1.075e+01 1.000e+00-2.500e-01
  w 1          SAND25.0000e-011.0000e+00           1.125e+01 1.000e+00-2.500e-01
  x 1          SAND25.0000e-011.0000e+00           1.175e+01 1.000e+00-2.500e-01
  a 2          SAND15.0000e-011.0000e+00           2.500e-01 1.000e+00-7.500e-01
  b 2          SAND15.0000e-011.0000e+00           7.500e-01 1.000e+00-7.500e-01
  c 2          SAND15.0000e-011.0000e+00           1.250e+00 1.000e+00-7.500e-01
  d 2          SAND15.0000e-011.0000e+00           1.750e+00 1.000e+00-7.500e-01
  e 2          SAND15.0000e-011.0000e+00           2.250e+00 1.000e+00-7.500e-01
  f 2          SAND15.0000e-011.0000e+00           2.750e+00 1.000e+00-7.500e-01
  g 2          SAND15.0000e-011.0000e+00           3.250e+00 1.000e+00-7.500e-01
  h 2          SAND15.0000e-011.0000e+00           3.750e+00 1.000e+00-7.500e-01
  i 2          SAND15.0000e-011.0000e+00           4.250e+00 1.000e+00-7.500e-01
  j 2          SAND15.0000e-011.0000e+00           4.750e+00 1.000e+00-7.500e-01
  k 2          SAND15.0000e-011.0000e+00           5.250e+00 1.000e+00-7.500e-01
  l 2          SAND15.0000e-011.0000e+00           5.750e+00 1.000e+00-7.500e-01
  m 2          SAND25.0000e-011.0000e+00           6.250e+00 1.000e+00-7.500e-01
  n 2          SAND25.0000e-011.0000e+00           6.750e+00 1.000e+00-7.500e-01
  o 2          SAND25.0000e-011.0000e+00           7.250e+00 1.000e+00-7.500e-01
  p 2          SAND25.0000e-011.0000e+00           7.750e+00 1.000e+00-7.500e-01
  q 2          SAND25.0000e-011.0000e+00           8.250e+00 1.000e+00-7.500e-01
  r 2          SAND25.0000e-011.0000e+00           8.750e+00 1.000e+00-7.500e-01
  s 2          SAND25.0000e-011.0000e+00           9.250e+00 1.000e+00-7.500e-01
  t 2          SAND25.0000e-011.0000e+00           9.750e+00 1.000e+00-7.500e-01
  u 2          SAND25.0000e-011.0000e+00           1.025e+01 1.000e+00-7.500e-01
  v 2          SAND25.0000e-011.0000e+00           1.075e+01 1.000e+00-7.500e-01
  w 2          SAND25.0000e-011.0000e+00           1.125e+01 1.000e+00-7.500e-01
  x 2          SAND25.0000e-011.0000e+00           1.175e+01 1.000e+00-7.500e-01
  a 3          SAND15.0000e-011.0000e+00           2.500e-01 1.000e+00-1.250e+00
  b 3          SAND15.0000e-011.0000e+00           7.500e-01 1.000e+00-1.250e+00
  c 3          SAND15.0000e-011.0000e+00           1.250e+00 1.000e+00-1.250e+00
  d 3          SAND15.0000e-011.0000e+00           1.750e+00 1.000e+00-1.250e+00
  e 3          SAND15.0000e-011.0000e+00           2.250e+00 1.000e+00-1.250e+00
  f 3          SAND15.0000e-011.0000e+00           2.750e+00 1.000e+00-1.250e+00
  g 3          SAND15.0000e-011.0000e+00           3.250e+00 1.000e+00-1.250e+00
  h 3          SAND15.0000e-011.0000e+00           3.750e+00 1.000e+00-1.250e+00
  i 3          SAND15.0000e-011.0000e+00           4.250e+00 1.000e+00-1.250e+00
  j 3          SAND15.0000e-011.0000e+00           4.750e+00 1.000e+00-1.250e+00
  k 3          SAND15.0000e-011.0000e+00           5.250e+00 1.000e+00-1.250e+00
  l 3          SAND15.0000e-011.0000e+00           5.750e+00 1.000e+00-1.250e+00
  m 3          SAND25.0000e-011.0000e+00           6.250e+00 1.000e+00-1.250e+00
  n 3          SAND25.0000e-011.0000e+00           6.750e+00 1.000e+00-1.250e+00
  o 3          SAND25.0000e-011.0000e+00           7.250e+00 1.000e+00-1.250e+00
  p 3          SAND25.0000e-011.0000e+00           7.750e+00 1.000e+00-1.250e+00
  q 3          SAND25.0000e-011.0000e+00           8.250e+00 1.000e+00-1.250e+00
  r 3          SAND25.0000e-011.0000e+00           8.750e+00 1.000e+00-1.250e+00
  s 3          SAND25.0000e-011.0000e+00           9.250e+00 1.000e+00-1.250e+00
  t 3          SAND25.0000e-011.0000e+00           9.750e+00 1.000e+00-1.250e+00
  u 3          SAND25.0000e-011.0000e+00           1.025e+01 1.000e+00-1.250e+00
  v 3          SAND25.0000e-011.0000e+00           1.075e+01 1.000e+00-1.250e+00
  w 3          SAND25.0000e-011.0000e+00           1.125e+01 1.000e+00-1.250e+00
  x 3          SAND25.0000e-011.0000e+00           1.175e+01 1.000e+00-1.250e+00
  a 4          SAND15.0000e-011.0000e+00           2.500e-01 1.000e+00-1.750e+00
  b 4          SAND15.0000e-011.0000e+00           7.500e-01 1.000e+00-1.750e+00
  c 4          SAND15.0000e-011.0000e+00           1.250e+00 1.000e+00-1.750e+00
  d 4          SAND15.0000e-011.0000e+00           1.750e+00 1.000e+00-1.750e+00
  e 4          SAND15.0000e-011.0000e+00           2.250e+00 1.000e+00-1.750e+00
  f 4          SAND15.0000e-011.0000e+00           2.750e+00 1.000e+00-1.750e+00
  g 4          SAND15.0000e-011.0000e+00           3.250e+00 1.000e+00-1.750e+00
  h 4          SAND15.0000e-011.0000e+00           3.750e+00 1.000e+00-1.750e+00
  i 4          SAND15.0000e-011.0000e+00           4.250e+00 1.000e+00-1.750e+00
  j 4          SAND15.0000e-011.0000e+00           4.750e+00 1.000e+00-1.750e+00
  k 4          SAND15.0000e-011.0000e+00           5.250e+00 1.000e+00-1.750e+00
  l 4          SAND15.0000e-011.0000e+00           5.750e+00 1.000e+00-1.750e+00
  m 4          SAND25.0000e-011.0000e+00           6.250e+00 1.000e+00-1.750e+00
  n 4          SAND25.0000e-011.0000e+00           6.750e+00 1.000e+00-1.750e+00
  o 4          SAND25.0000e-011.0000e+00           7.250e+00 1.000e+00-1.750e+00
  p 4          SAND25.0000e-011.0000e+00           7.750e+00 1.000e+00-1.750e+00
  q 4          SAND25.0000e-011.0000e+00           8.250e+00 1.000e+00-1.750e+00
  r 4          SAND25.0000e-011.0000e+00           8.750e+00 1.000e+00-1.750e+00
  s 4          SAND25.0000e-011.0000e+00           9.250e+00 1.000e+00-1.750e+00
  t 4          SAND25.0000e-011.0000e+00           9.750e+00 1.000e+00-1.750e+00
  u 4          SAND25.0000e-011.0000e+00           1.025e+01 1.000e+00-1.750e+00
  v 4          SAND25.0000e-011.0000e+00           1.075e+01 1.000e+00-1.750e+00
  w 4          SAND25.0000e-011.0000e+00           1.125e+01 1.000e+00-1.750e+00
  x 4          SAND25.0000e-011.0000e+00           1.175e+01 1.000e+00-1.750e+00
  a 5          SAND15.0000e-011.0000e+00           2.500e-01 1.000e+00-2.250e+00
  b 5          SAND15.0000e-011.0000e+00           7.500e-01 1.000e+00-2.250e+00
  c 5          SAND15.0000e-011.0000e+00           1.250e+00 1.000e+00-2.250e+00
  d 5          SAND15.0000e-011.0000e+00           1.750e+00 1.000e+00-2.250e+00
  e 5          SAND15.0000e-011.0000e+00           2.250e+00 1.000e+00-2.250e+00
  f 5          SAND15.0000e-011.0000e+00           2.750e+00 1.000e+00-2.250e+00
  g 5          SAND15.0000e-011.0000e+00           3.250e+00 1.000e+00-2.250e+00
  h 5          SAND15.0000e-011.0000e+00           3.750e+00 1.000e+00-2.250e+00
  i 5          SAND15.0000e-011.0000e+00           4.250e+00 1.000e+00-2.250e+00
  j 5          SAND15.0000e-011.0000e+00           4.750e+00 1.000e+00-2.250e+00
  k 5          SAND15.0000e-011.0000e+00           5.250e+00 1.000e+00-2.250e+00
  l 5          SAND15.0000e-011.0000e+00           5.750e+00 1.000e+00-2.250e+00
  m 5          SAND25.0000e-011.0000e+00           6.250e+00 1.000e+00-2.250e+00
  n 5          SAND25.0000e-011.0000e+00           6.750e+00 1.000e+00-2.250e+00
  o 5          SAND25.0000e-011.0000e+00           7.250e+00 1.000e+00-2.250e+00
  p 5          SAND25.0000e-011.0000e+00           7.750e+00 1.000e+00-2.250e+00
  q 5          SAND25.0000e-011.0000e+00           8.250e+00 1.000e+00-2.250e+00
  r 5          SAND25.0000e-011.0000e+00           8.750e+00 1.000e+00-2.250e+00
  s 5          SAND25.0000e-011.0000e+00           9.250e+00 1.000e+00-2.250e+00
  t 5          SAND25.0000e-011.0000e+00           9.750e+00 1.000e+00-2.250e+00
  u 5          SAND25.0000e-011.0000e+00           1.025e+01 1.000e+00-2.250e+00
  v 5          SAND25.0000e-011.0000e+00           1.075e+01 1.000e+00-2.250e+00
  w 5          SAND25.0000e-011.0000e+00           1.125e+01 1.000e+00-2.250e+00
  x 5          SAND25.0000e-011.0000e+00           1.175e+01 1.000e+00-2.250e+00
  a 6          SAND15.0000e-011.0000e+00           2.500e-01 1.000e+00-2.750e+00
  b 6          SAND15.0000e-011.0000e+00           7.500e-01 1.000e+00-2.750e+00
  c 6          SAND15.0000e-011.0000e+00           1.250e+00 1.000e+00-2.750e+00
  d 6          SAND15.0000e-011.0000e+00           1.750e+00 1.000e+00-2.750e+00
  e 6          SAND15.0000e-011.0000e+00           2.250e+00 1.000e+00-2.750e+00
  f 6          SAND15.0000e-011.0000e+00           2.750e+00 1.000e+00-2.750e+00
  g 6          SAND15.0000e-011.0000e+00           3.250e+00 1.000e+00-2.750e+00
  h 6          SAND15.0000e-011.0000e+00           3.750e+00 1.000e+00-2.750e+00
  i 6          SAND15.0000e-011.0000e+00           4.250e+00 1.000e+00-2.750e+00
  j 6          SAND15.0000e-011.0000e+00           4.750e+00 1.000e+00-2.750e+00
  k 6          SAND15.0000e-011.0000e+00           5.250e+00 1.000e+00-2.750e+00
  l 6          SAND15.0000e-011.0000e+00           5.750e+00 1.000e+00-2.750e+00
  m 6          SAND25.0000e-011.0000e+00           6.250e+00 1.000e+00-2.750e+00
  n 6          SAND25.0000e-011.0000e+00           6.750e+00 1.000e+00-2.750e+00
  o 6          SAND25.0000e-011.0000e+00           7.250e+00 1.000e+00-2.750e+00
  p 6          SAND25.0000e-011.0000e+00           7.750e+00 1.000e+00-2.750e+00
  q 6          SAND25.0000e-011.0000e+00           8.250e+00 1.000e+00-2.750e+00
  r 6          SAND25.0000e-011.0000e+00           8.750e+00 1.000e+00-2.750e+00
  s 6          SAND25.0000e-011.0000e+00           9.250e+00 1.000e+00-2.750e+00
  t 6          SAND25.0000e-011.0000e+00           9.750e+00 1.000e+00-2.750e+00
  u 6          SAND25.0000e-011.0000e+00           1.025e+01 1.000e+00-2.750e+00
  v 6          SAND25.0000e-011.0000e+00           1.075e+01 1.000e+00-2.750e+00
  w 6          SAND25.0000e-011.0000e+00           1.125e+01 1.000e+00-2.750e+00
  x 6          SAND25.0000e-011.0000e+00           1.175e+01 1.000e+00-2.750e+00
  a 7          SAND15.0000e-011.0000e+00           2.500e-01 1.000e+00-3.250e+00
  b 7          SAND15.0000e-011.0000e+00           7.500e-01 1.000e+00-3.250e+00
  c 7          SAND15.0000e-011.0000e+00           1.250e+00 1.000e+00-3.250e+00
  d 7          SAND15.0000e-011.0000e+00           1.750e+00 1.000e+00-3.250e+00
  e 7          SAND15.0000e-011.0000e+00           2.250e+00 1.000e+00-3.250e+00
  f 7          SAND15.0000e-011.0000e+00           2.750e+00 1.000e+00-3.250e+00
  g 7          SAND15.0000e-011.0000e+00           3.250e+00 1.000e+00-3.250e+00
  h 7          SAND15.0000e-011.0000e+00           3.750e+00 1.000e+00-3.250e+00
  i 7          SAND15.0000e-011.0000e+00           4.250e+00 1.000e+00-3.250e+00
  j 7          SAND15.0000e-011.0000e+00           4.750e+00 1.000e+00-3.250e+00
  k 7          SAND15.0000e-011.0000e+00           5.250e+00 1.000e+00-3.250e+00
  l 7          SAND15.0000e-011.0000e+00           5.750e+00 1.000e+00-3.250e+00
  m 7          SAND25.0000e-011.0000e+00           6.250e+00 1.000e+00-3.250e+00
  n 7          SAND25.0000e-011.0000e+00           6.750e+00 1.000e+00-3.250e+00
  o 7          SAND25.0000e-011.0000e+00           7.250e+00 1.000e+00-3.250e+00
  p 7          SAND25.0000e-011.0000e+00           7.750e+00 1.000e+00-3.250e+00
  q 7          SAND25.0000e-011.0000e+00           8.250e+00 1.000e+00-3.250e+00
  r 7          SAND25.0000e-011.0000e+00           8.750e+00 1.000e+00-3.250e+00
  s 7          SAND25.0000e-011.0000e+00           9.250e+00 1.000e+00-3.250e+00
  t 7          SAND25.0000e-011.0000e+00           9.750e+00 1.000e+00-3.250e+00
  u 7          SAND25.0000e-011.0000e+00           1.025e+01 1.000e+00-3.250e+00
  v 7          SAND25.0000e-011.0000e+00           1.075e+01 1.000e+00-3.250e+00
  w 7          SAND25.0000e-011.0000e+00           1.125e+01 1.000e+00-3.250e+00
  x 7          SAND25.0000e-011.0000e+00           1.175e+01 1.000e+00-3.250e+00
  a 8          SAND15.0000e-011.0000e+00           2.500e-01 1.000e+00-3.750e+00
  b 8          SAND15.0000e-011.0000e+00           7.500e-01 1.000e+00-3.750e+00
  c 8          SAND15.0000e-011.0000e+00           1.250e+00 1.000e+00-3.750e+00
  d 8          SAND15.0000e-011.0000e+00           1.750e+00 1.000e+00-3.750e+00
  e 8          SAND15.0000e-011.0000e+00           2.250e+00 1.000e+00-3.750e+00
  f 8          SAND15.0000e-011.0000e+00           2.750e+00 1.000e+00-3.750e+00
  g 8          SAND15.0000e-011.0000e+00           3.250e+00 1.000e+00-3.750e+00
  h 8          SAND15.0000e-011.0000e+00           3.750e+00 1.000e+00-3.750e+00
  i 8          SAND15.0000e-011.0000e+00           4.250e+00 1.000e+00-3.750e+00
  j 8          SAND15.0000e-011.0000e+00           4.750e+00 1.000e+00-3.750e+00
  k 8          SAND15.0000e-011.0000e+00           5.250e+00 1.000e+00-3.750e+00
  l 8          SAND15.0000e-011.0000e+00           5.750e+00 1.000e+00-3.750e+00
  m 8          SAND25.0000e-011.0000e+00           6.250e+00 1.000e+00-3.750e+00
  n 8          SAND25.0000e-011.0000e+00           6.750e+00 1.000e+00-3.750e+00
  o 8          SAND25.0000e-011.0000e+00           7.250e+00 1.000e+00-3.750e+00
  p 8          SAND25.0000e-011.0000e+00           7.750e+00 1.000e+00-3.750e+00
  q 8          SAND25.0000e-011.0000e+00           8.250e+00 1.000e+00-3.750e+00
  r 8          SAND25.0000e-011.0000e+00           8.750e+00 1.000e+00-3.750e+00
  s 8          SAND25.0000e-011.0000e+00           9.250e+00 1.000e+00-3.750e+00
  t 8          SAND25.0000e-011.0000e+00           9.750e+00 1.000e+00-3.750e+00
  u 8          SAND25.0000e-011.0000e+00           1.025e+01 1.000e+00-3.750e+00
  v 8          SAND25.0000e-011.0000e+00           1.075e+01 1.000e+00-3.750e+00
  w 8          SAND25.0000e-011.0000e+00           1.125e+01 1.000e+00-3.750e+00
  x 8          SAND25.0000e-011.0000e+00           1.175e+01 1.000e+00-3.750e+00
  a 9          SAND15.0000e-011.0000e+00           2.500e-01 1.000e+00-4.250e+00
  b 9          SAND15.0000e-011.0000e+00           7.500e-01 1.000e+00-4.250e+00
  c 9          SAND15.0000e-011.0000e+00           1.250e+00 1.000e+00-4.250e+00
  d 9          SAND15.0000e-011.0000e+00           1.750e+00 1.000e+00-4.250e+00
  e 9          SAND15.0000e-011.0000e+00           2.250e+00 1.000e+00-4.250e+00
  f 9          SAND15.0000e-011.0000e+00           2.750e+00 1.000e+00-4.250e+00
  g 9          SAND15.0000e-011.0000e+00           3.250e+00 1.000e+00-4.250e+00
  h 9          SAND15.0000e-011.0000e+00           3.750e+00 1.000e+00-4.250e+00
  i 9          SAND15.0000e-011.0000e+00           4.250e+00 1.000e+00-4.250e+00
  j 9          SAND15.0000e-011.0000e+00           4.750e+00 1.000e+00-4.250e+00
  k 9          SAND15.0000e-011.0000e+00           5.250e+00 1.000e+00-4.250e+00
  l 9          SAND15.0000e-011.0000e+00           5.750e+00 1.000e+00-4.250e+00
  m 9          SAND25.0000e-011.0000e+00           6.250e+00 1.000e+00-4.250e+00
  n 9          SAND25.0000e-011.0000e+00           6.750e+00 1.000e+00-4.250e+00
  o 9          SAND25.0000e-011.0000e+00           7.250e+00 1.000e+00-4.250e+00
  p 9          SAND25.0000e-011.0000e+00           7.750e+00 1.000e+00-4.250e+00
  q 9          SAND25.0000e-011.0000e+00           8.250e+00 1.000e+00-4.250e+00
  r 9          SAND25.0000e-011.0000e+00           8.750e+00 1.000e+00-4.250e+00
  s 9          SAND25.0000e-011.0000e+00           9.250e+00 1.000e+00-4.250e+00
  t 9          SAND25.0000e-011.0000e+00           9.750e+00 1.000e+00-4.250e+00
  u 9          SAND25.0000e-011.0000e+00           1.025e+01 1.000e+00-4.250e+00
  v 9          SAND25.0000e-011.0000e+00           1.075e+01 1.000e+00-4.250e+00
  w 9          SAND25.0000e-011.0000e+00           1.125e+01 1.000e+00-4.250e+00
  x 9          SAND25.0000e-011.0000e+00           1.175e+01 1.000e+00-4.250e+00
  a10          SAND15.0000e-011.0000e+00           2.500e-01 1.000e+00-4.750e+00
  b10          SAND15.0000e-011.0000e+00           7.500e-01 1.000e+00-4.750e+00
  c10          SAND15.0000e-011.0000e+00           1.250e+00 1.000e+00-4.750e+00
  d10          SAND15.0000e-011.0000e+00           1.750e+00 1.000e+00-4.750e+00
  e10          SAND15.0000e-011.0000e+00           2.250e+00 1.000e+00-4.750e+00
  f10          SAND15.0000e-011.0000e+00           2.750e+00 1.000e+00-4.750e+00
  g10          SAND15.0000e-011.0000e+00           3.250e+00 1.000e+00-4.750e+00
  h10          SAND15.0000e-011.0000e+00           3.750e+00 1.000e+00-4.750e+00
  i10          SAND15.0000e-011.0000e+00           4.250e+00 1.000e+00-4.750e+00
  j10          SAND15.0000e-011.0000e+00           4.750e+00 1.000e+00-4.750e+00
  k10          SAND15.0000e-011.0000e+00           5.250e+00 1.000e+00-4.750e+00
  l10          SAND15.0000e-011.0000e+00           5.750e+00 1.000e+00-4.750e+00
  m10          SAND25.0000e-011.0000e+00           6.250e+00 1.000e+00-4.750e+00
  n10          SAND25.0000e-011.0000e+00           6.750e+00 1.000e+00-4.750e+00
  o10          SAND25.0000e-011.0000e+00           7.250e+00 1.000e+00-4.750e+00
  p10          SAND25.0000e-011.0000e+00           7.750e+00 1.000e+00-4.750e+00
  q10          SAND25.0000e-011.0000e+00           8.250e+00 1.000e+00-4.750e+00
  r10          SAND25.0000e-011.0000e+00           8.750e+00 1.000e+00-4.750e+00
  s10          SAND25.0000e-011.0000e+00           9.250e+00 1.000e+00-4.750e+00
  t10          SAND25.0000e-011.0000e+00           9.750e+00 1.000e+00-4.750e+00
  u10          SAND25.0000e-011.0000e+00           1.025e+01 1.000e+00-4.750e+00
  v10          SAND25.0000e-011.0000e+00           1.075e+01 1.000e+00-4.750e+00
  w10          SAND25.0000e-011.0000e+00           1.125e+01 1.000e+00-4.750e+00
  x10          SAND25.0000e-011.0000e+00           1.175e+01 1.000e+00-4.750e+00
  a11          SAND15.0000e-011.0000e+00           2.500e-01 1.000e+00-5.250e+00
  b11          SAND15.0000e-011.0000e+00           7.500e-01 1.000e+00-5.250e+00
  c11          SAND15.0000e-011.0000e+00           1.250e+00 1.000e+00-5.250e+00
  d11          SAND15.0000e-011.0000e+00           1.750e+00 1.000e+00-5.250e+00
  e11          SAND15.0000e-011.0000e+00           2.250e+00 1.000e+00-5.250e+00
  f11          SAND15.0000e-011.0000e+00           2.750e+00 1.000e+00-5.250e+00
  g11          SAND15.0000e-011.0000e+00           3.250e+00 1.000e+00-5.250e+00
  h11          SAND15.0000e-011.0000e+00           3.750e+00 1.000e+00-5.250e+00
  i11          SAND15.0000e-011.0000e+00           4.250e+00 1.000e+00-5.250e+00
  j11          SAND15.0000e-011.0000e+00           4.750e+00 1.000e+00-5.250e+00
  k11          SAND15.0000e-011.0000e+00           5.250e+00 1.000e+00-5.250e+00
  l11          SAND15.0000e-011.0000e+00           5.750e+00 1.000e+00-5.250e+00
  m11          SAND25.0000e-011.0000e+00           6.250e+00 1.000e+00-5.250e+00
  n11          SAND25.0000e-011.0000e+00           6.750e+00 1.000e+00-5.250e+00
  o11          SAND25.0000e-011.0000e+00           7.250e+00 1.000e+00-5.250e+00
  p11          SAND25.0000e-011.0000e+00           7.750e+00 1.000e+00-5.250e+00
  q11          SAND25.0000e-011.0000e+00           8.250e+00 1.000e+00-5.250e+00
  r11          SAND25.0000e-011.0000e+00           8.750e+00 1.000e+00-5.250e+00
  s11          SAND25.0000e-011.0000e+00           9.250e+00 1.000e+00-5.250e+00
  t11          SAND25.0000e-011.0000e+00           9.750e+00 1.000e+00-5.250e+00
  u11          SAND25.0000e-011.0000e+00           1.025e+01 1.000e+00-5.250e+00
  v11          SAND25.0000e-011.0000e+00           1.075e+01 1.000e+00-5.250e+00
  w11          SAND25.0000e-011.0000e+00           1.125e+01 1.000e+00-5.250e+00
  x11          SAND25.0000e-011.0000e+00           1.175e+01 1.000e+00-5.250e+00
  a12          SAND15.0000e-011.0000e+00           2.500e-01 1.000e+00-5.750e+00
  b12          SAND15.0000e-011.0000e+00           7.500e-01 1.000e+00-5.750e+00
  c12          SAND15.0000e-011.0000e+00           1.250e+00 1.000e+00-5.750e+00
  d12          SAND15.0000e-011.0000e+00           1.750e+00 1.000e+00-5.750e+00
  e12          SAND15.0000e-011.0000e+00           2.250e+00 1.000e+00-5.750e+00
  f12          SAND15.0000e-011.0000e+00           2.750e+00 1.000e+00-5.750e+00
  g12          SAND15.0000e-011.0000e+00           3.250e+00 1.000e+00-5.750e+00
  h12          SAND15.0000e-011.0000e+00           3.750e+00 1.000e+00-5.750e+00
  i12          SAND15.0000e-011.0000e+00           4.250e+00 1.000e+00-5.750e+00
  j12          SAND15.0000e-011.0000e+00           4.750e+00 1.000e+00-5.750e+00
  k12          SAND15.0000e-011.0000e+00           5.250e+00 1.000e+00-5.750e+00
  l12          SAND15.0000e-011.0000e+00           5.750e+00 1.000e+00-5.750e+00
  m12          SAND25.0000e-011.0000e+00           6.250e+00 1.000e+00-5.750e+00
  n12          SAND25.0000e-011.0000e+00           6.750e+00 1.000e+00-5.750e+00
  o12          SAND25.0000e-011.0000e+00           7.250e+00 1.000e+00-5.750e+00
  p12          SAND25.0000e-011.0000e+00           7.750e+00 1.000e+00-5.750e+00
  q12          SAND25.0000e-011.0000e+00           8.250e+00 1.000e+00-5.750e+00
  r12          SAND25.0000e-011.0000e+00           8.750e+00 1.000e+00-5.750e+00
  s12          SAND25.0000e-011.0000e+00           9.250e+00 1.000e+00-5.750e+00
  t12          SAND25.0000e-011.0000e+00           9.750e+00 1.000e+00-5.750e+00
  u12          SAND25.0000e-011.0000e+00           1.025e+01 1.000e+00-5.750e+00
  v12          SAND25.0000e-011.0000e+00           1.075e+01 1.000e+00-5.750e+00
  w12          SAND25.0000e-011.0000e+00           1.125e+01 1.000e+00-5.750e+00
  x12          SAND25.0000e-011.0000e+00           1.175e+01 1.000e+00-5.750e+00
  a13          SAND15.0000e-011.0000e+00           2.500e-01 1.000e+00-6.250e+00
  b13          SAND15.0000e-011.0000e+00           7.500e-01 1.000e+00-6.250e+00
  c13          SAND15.0000e-011.0000e+00           1.250e+00 1.000e+00-6.250e+00
  d13          SAND15.0000e-011.0000e+00           1.750e+00 1.000e+00-6.250e+00
  e13          SAND15.0000e-011.0000e+00           2.250e+00 1.000e+00-6.250e+00
  f13          SAND15.0000e-011.0000e+00           2.750e+00 1.000e+00-6.250e+00
  g13          SAND15.0000e-011.0000e+00           3.250e+00 1.000e+00-6.250e+00
  h13          SAND15.0000e-011.0000e+00           3.750e+00 1.000e+00-6.250e+00
  i13          SAND15.0000e-011.0000e+00           4.250e+00 1.000e+00-6.250e+00
  j13          SAND15.0000e-011.0000e+00           4.750e+00 1.000e+00-6.250e+00
  k13          SAND15.0000e-011.0000e+00           5.250e+00 1.000e+00-6.250e+00
  l13          SAND15.0000e-011.0000e+00           5.750e+00 1.000e+00-6.250e+00
  m13          SAND25.0000e-011.0000e+00           6.250e+00 1.000e+00-6.250e+00
  n13          SAND25.0000e-011.0000e+00           6.750e+00 1.000e+00-6.250e+00
  o13          SAND25.0000e-011.0000e+00           7.250e+00 1.000e+00-6.250e+00
  p13          SAND25.0000e-011.0000e+00           7.750e+00 1.000e+00-6.250e+00
  q13          SAND25.0000e-011.0000e+00           8.250e+00 1.000e+00-6.250e+00
  r13          SAND25.0000e-011.0000e+00           8.750e+00 1.000e+00-6.250e+00
  s13          SAND25.0000e-011.0000e+00           9.250e+00 1.000e+00-6.250e+00
  t13          SAND25.0000e-011.0000e+00           9.750e+00 1.000e+00-6.250e+00
  u13          SAND25.0000e-011.0000e+00           1.025e+01 1.000e+00-6.250e+00
  v13          SAND25.0000e-011.0000e+00           1.075e+01 1.000e+00-6.250e+00
  w13          SAND25.0000e-011.0000e+00           1.125e+01 1.000e+00-6.250e+00
  x13          SAND25.0000e-011.0000e+00           1.175e+01 1.000e+00-6.250e+00
  a14          SAND15.0000e-011.0000e+00           2.500e-01 1.000e+00-6.750e+00
  b14          SAND15.0000e-011.0000e+00           7.500e-01 1.000e+00-6.750e+00
  c14          SAND15.0000e-011.0000e+00           1.250e+00 1.000e+00-6.750e+00
  d14          SAND15.0000e-011.0000e+00           1.750e+00 1.000e+00-6.750e+00
  e14          SAND15.0000e-011.0000e+00           2.250e+00 1.000e+00-6.750e+00
  f14          SAND15.0000e-011.0000e+00           2.750e+00 1.000e+00-6.750e+00
  g14          SAND15.0000e-011.0000e+00           3.250e+00 1.000e+00-6.750e+00
  h14          SAND15.0000e-011.0000e+00           3.750e+00 1.000e+00-6.750e+00
  i14          SAND15.0000e-011.0000e+00           4.250e+00 1.000e+00-6.750e+00
  j14          SAND15.0000e-011.0000e+00           4.750e+00 1.000e+00-6.750e+00
  k14          SAND15.0000e-011.0000e+00           5.250e+00 1.000e+00-6.750e+00
  l14          SAND15.0000e-011.0000e+00           5.750e+00 1.000e+00-6.750e+00
  m14          SAND25.0000e-011.0000e+00           6.250e+00 1.000e+00-6.750e+00
  n14          SAND25.0000e-011.0000e+00           6.750e+00 1.000e+00-6.750e+00
  o14          SAND25.0000e-011.0000e+00           7.250e+00 1.000e+00-6.750e+00
  p14          SAND25.0000e-011.0000e+00           7.750e+00 1.000e+00-6.750e+00
  q14          SAND25.0000e-011.0000e+00           8.250e+00 1.000e+00-6.750e+00
  r14          SAND25.0000e-011.0000e+00           8.750e+00 1.000e+00-6.750e+00
  s14          SAND25.0000e-011.0000e+00           9.250e+00 1.000e+00-6.750e+00
  t14          SAND25.0000e-011.0000e+00           9.750e+00 1.000e+00-6.750e+00
  u14          SAND25.0000e-011.0000e+00           1.025e+01 1.000e+00-6.750e+00
  v14          SAND25.0000e-011.0000e+00           1.075e+01 1.000e+00-6.750e+00
  w14          SAND25.0000e-011.0000e+00           1.125e+01 1.000e+00-6.750e+00
  x14          SAND25.0000e-011.0000e+00           1.175e+01 1.000e+00-6.750e+00
  a15          SAND15.0000e-011.0000e+00           2.500e-01 1.000e+00-7.250e+00
  b15          SAND15.0000e-011.0000e+00           7.500e-01 1.000e+00-7.250e+00
  c15          SAND15.0000e-011.0000e+00           1.250e+00 1.000e+00-7.250e+00
  d15          SAND15.0000e-011.0000e+00           1.750e+00 1.000e+00-7.250e+00
  e15          SAND15.0000e-011.0000e+00           2.250e+00 1.000e+00-7.250e+00
  f15          SAND15.0000e-011.0000e+00           2.750e+00 1.000e+00-7.250e+00
  g15          SAND15.0000e-011.0000e+00           3.250e+00 1.000e+00-7.250e+00
  h15          SAND15.0000e-011.0000e+00           3.750e+00 1.000e+00-7.250e+00
  i15          SAND15.0000e-011.0000e+00           4.250e+00 1.000e+00-7.250e+00
  j15          SAND15.0000e-011.0000e+00           4.750e+00 1.000e+00-7.250e+00