sam6: Ventilation experiment
ROCKS----1----*----2----*----3----*----4----*----5----*----6----*----7----*----8
MATRI    2     2706.       .01 1.000E-17 1.000E-17 1.000E-17       2.1    -1000.
 2.000E-11                     1.000E+00
   11            .00       .00
   11      3.000E+00 1.000E+06
DRIFT    2     2706.       .99 1.000E-17 1.000E-17 1.000E-17       2.1     1000.
                               0.000E+00
    5
    1      0.500E+08 0.000E+00 0.999E+00

PARAM----1----*----2----*----3----*----4----*----5----*----6----*----7----*----8
  -31000    1000100000000000000400003000 0.241E-04 2.334E+00 0.000E+00
          8.64000E06       -1. 0.864E+15
 0.100E+01

               5.0E5              0.1E-1                13.0
MULTI----1----*----2----*----3----*----4----*----5----*----6----*----7----*----8
    2    3    2    6
START----1----*----2----*----3----*----4----*----5----*----6----*----7----*----8
ELEME ---   203    3    0  200    .00100     6.750
XX  1              2 .9621E+03 .1924E+02           .8755E+00          -.5000E+00
RR  2              1 .1100E-01 .2200E-01           .1750E+01          -.5000E+00
RR  3              1 .1127E-01 .2254E-01           .1752E+01          -.5000E+00
RR  4              1 .1155E-01 .2310E-01           .1753E+01          -.5000E+00
RR  5              1 .1184E-01 .2367E-01           .1754E+01          -.5000E+00
RR  6              1 .1213E-01 .2426E-01           .1755E+01          -.5000E+00
RR  7              1 .1243E-01 .2486E-01           .1756E+01          -.5000E+00
RR  8              1 .1274E-01 .2548E-01           .1757E+01          -.5000E+00
RR  9              1 .1306E-01 .2612E-01           .1758E+01          -.5000E+00
RR 10              1 .1338E-01 .2677E-01           .1759E+01          -.5000E+00
RR 11              1 .1372E-01 .2743E-01           .1761E+01          -.5000E+00
RR 12              1 .1406E-01 .2812E-01           .1762E+01          -.5000E+00
RR 13              1 .1441E-01 .2882E-01           .1763E+01          -.5000E+00
RR 14              1 .1477E-01 .2954E-01           .1764E+01          -.5000E+00
RR 15              1 .1514E-01 .3027E-01           .1766E+01          -.5000E+00
RR 16              1 .1551E-01 .3103E-01           .1767E+01          -.5000E+00
RR 17              1 .1590E-01 .3181E-01           .1769E+01          -.5000E+00
RR 18              1 .1630E-01 .3260E-01           .1770E+01          -.5000E+00
RR 19              1 .1671E-01 .3342E-01           .1771E+01          -.5000E+00
RR 20              1 .1713E-01 .3426E-01           .1773E+01          -.5000E+00
RR 21              1 .1756E-01 .3511E-01           .1775E+01          -.5000E+00
RR 22              1 .1800E-01 .3600E-01           .1776E+01          -.5000E+00
RR 23              1 .1845E-01 .3690E-01           .1778E+01          -.5000E+00
RR 24              1 .1891E-01 .3783E-01           .1779E+01          -.5000E+00
RR 25              1 .1939E-01 .3878E-01           .1781E+01          -.5000E+00
RR 26              1 .1988E-01 .3976E-01           .1783E+01          -.5000E+00
RR 27              1 .2038E-01 .4076E-01           .1785E+01          -.5000E+00
RR 28              1 .2089E-01 .4179E-01           .1787E+01          -.5000E+00
RR 29              1 .2142E-01 .4285E-01           .1788E+01          -.5000E+00
RR 30              1 .2196E-01 .4393E-01           .1790E+01          -.5000E+00
RR 31              1 .2252E-01 .4504E-01           .1792E+01          -.5000E+00
RR 32              1 .2309E-01 .4618E-01           .1794E+01          -.5000E+00
RR 33              1 .2368E-01 .4735E-01           .1796E+01          -.5000E+00
RR 34              1 .2428E-01 .4856E-01           .1799E+01          -.5000E+00
RR 35              1 .2490E-01 .4979E-01           .1801E+01          -.5000E+00
RR 36              1 .2553E-01 .5106E-01           .1803E+01          -.5000E+00
RR 37              1 .2618E-01 .5236E-01           .1805E+01          -.5000E+00
RR 38              1 .2685E-01 .5370E-01           .1808E+01          -.5000E+00
RR 39              1 .2753E-01 .5507E-01           .1810E+01          -.5000E+00
RR 40              1 .2824E-01 .5647E-01           .1812E+01          -.5000E+00
RR 41              1 .2896E-01 .5792E-01           .1815E+01          -.5000E+00
RR 42              1 .2970E-01 .5941E-01           .1817E+01          -.5000E+00
RR 43              1 .3047E-01 .6093E-01           .1820E+01          -.5000E+00
RR 44              1 .3125E-01 .6250E-01           .1823E+01          -.5000E+00
RR 45              1 .3205E-01 .6411E-01           .1826E+01          -.5000E+00
RR 46              1 .3288E-01 .6576E-01           .1828E+01          -.5000E+00
RR 47              1 .3373E-01 .6745E-01           .1831E+01          -.5000E+00
RR 48              1 .3460E-01 .6920E-01           .1834E+01          -.5000E+00
RR 49              1 .3549E-01 .7099E-01           .1837E+01          -.5000E+00
RR 50              1 .3641E-01 .7283E-01           .1840E+01          -.5000E+00
RR 51              1 .3736E-01 .7472E-01           .1844E+01          -.5000E+00
RR 52              1 .3833E-01 .7666E-01           .1847E+01          -.5000E+00
RR 53              1 .3933E-01 .7866E-01           .1850E+01          -.5000E+00
RR 54              1 .4035E-01 .8071E-01           .1854E+01          -.5000E+00
RR 55              1 .4141E-01 .8282E-01           .1857E+01          -.5000E+00
RR 56              1 .4249E-01 .8498E-01           .1861E+01          -.5000E+00
RR 57              1 .4361E-01 .8721E-01           .1864E+01          -.5000E+00
RR 58              1 .4475E-01 .8950E-01           .1868E+01          -.5000E+00
RR 59              1 .4593E-01 .9186E-01           .1872E+01          -.5000E+00
RR 60              1 .4714E-01 .9428E-01           .1876E+01          -.5000E+00
RR 61              1 .4838E-01 .9676E-01           .1880E+01          -.5000E+00
RR 62              1 .4966E-01 .9932E-01           .1884E+01          -.5000E+00
RR 63              1 .5098E-01 .1020E+00           .1888E+01          -.5000E+00
RR 64              1 .5233E-01 .1047E+00           .1893E+01          -.5000E+00
RR 65              1 .5372E-01 .1074E+00           .1897E+01          -.5000E+00
RR 66              1 .5515E-01 .1103E+00           .1902E+01          -.5000E+00
RR 67              1 .5663E-01 .1133E+00           .1906E+01          -.5000E+00
RR 68              1 .5814E-01 .1163E+00           .1911E+01          -.5000E+00
RR 69              1 .5970E-01 .1194E+00           .1916E+01          -.5000E+00
RR 70              1 .6130E-01 .1226E+00           .1921E+01          -.5000E+00
RR 71              1 .6296E-01 .1259E+00           .1926E+01          -.5000E+00
RR 72              1 .6465E-01 .1293E+00           .1932E+01          -.5000E+00
RR 73              1 .6640E-01 .1328E+00           .1937E+01          -.5000E+00
RR 74              1 .6820E-01 .1364E+00           .1942E+01          -.5000E+00
RR 75              1 .7006E-01 .1401E+00           .1948E+01          -.5000E+00
RR 76              1 .7196E-01 .1439E+00           .1954E+01          -.5000E+00
RR 77              1 .7393E-01 .1479E+00           .1960E+01          -.5000E+00
RR 78              1 .7595E-01 .1519E+00           .1966E+01          -.5000E+00
RR 79              1 .7803E-01 .1561E+00           .1972E+01          -.5000E+00
RR 80              1 .8018E-01 .1604E+00           .1979E+01          -.5000E+00
RR 81              1 .8239E-01 .1648E+00           .1985E+01          -.5000E+00
RR 82              1 .8467E-01 .1693E+00           .1992E+01          -.5000E+00
RR 83              1 .8701E-01 .1740E+00           .1999E+01          -.5000E+00
RR 84              1 .8943E-01 .1789E+00           .2006E+01          -.5000E+00
RR 85              1 .9192E-01 .1838E+00           .2013E+01          -.5000E+00
RR 86              1 .9449E-01 .1890E+00           .2020E+01          -.5000E+00
RR 87              1 .9713E-01 .1943E+00           .2028E+01          -.5000E+00
RR 88              1 .9986E-01 .1997E+00           .2035E+01          -.5000E+00
RR 89              1 .1027E+00 .2053E+00           .2043E+01          -.5000E+00
RR 90              1 .1056E+00 .2111E+00           .2051E+01          -.5000E+00
RR 91              1 .1086E+00 .2171E+00           .2060E+01          -.5000E+00
RR 92              1 .1116E+00 .2233E+00           .2068E+01          -.5000E+00
RR 93              1 .1148E+00 .2297E+00           .2077E+01          -.5000E+00
RR 94              1 .1181E+00 .2362E+00           .2086E+01          -.5000E+00
RR 95              1 .1215E+00 .2430E+00           .2095E+01          -.5000E+00
RR 96              1 .1250E+00 .2500E+00           .2104E+01          -.5000E+00
RR 97              1 .1286E+00 .2572E+00           .2114E+01          -.5000E+00
RR 98              1 .1323E+00 .2646E+00           .2124E+01          -.5000E+00
RR 99              1 .1362E+00 .2723E+00           .2134E+01          -.5000E+00
RR1 0              1 .1401E+00 .2802E+00           .2144E+01          -.5000E+00
RR1 1              1 .1442E+00 .2884E+00           .2154E+01          -.5000E+00
RR1 2              1 .1484E+00 .2969E+00           .2165E+01          -.5000E+00
RR1 3              1 .1528E+00 .3056E+00           .2176E+01          -.5000E+00
RR1 4              1 .1573E+00 .3146E+00           .2188E+01          -.5000E+00
RR1 5              1 .1620E+00 .3239E+00           .2199E+01          -.5000E+00
RR1 6              1 .1668E+00 .3336E+00           .2211E+01          -.5000E+00
RR1 7              1 .1718E+00 .3435E+00           .2223E+01          -.5000E+00
RR1 8              1 .1769E+00 .3538E+00           .2236E+01          -.5000E+00
RR1 9              1 .1822E+00 .3644E+00           .2248E+01          -.5000E+00
RR110              1 .1877E+00 .3754E+00           .2261E+01          -.5000E+00
RR111              1 .1934E+00 .3867E+00           .2275E+01          -.5000E+00
RR112              1 .1992E+00 .3985E+00           .2288E+01          -.5000E+00
RR113              1 .2053E+00 .4106E+00           .2303E+01          -.5000E+00
RR114              1 .2116E+00 .4232E+00           .2317E+01          -.5000E+00
RR115              1 .2181E+00 .4362E+00           .2332E+01          -.5000E+00
RR116              1 .2248E+00 .4496E+00           .2347E+01          -.5000E+00
RR117              1 .2317E+00 .4635E+00           .2362E+01          -.5000E+00
RR118              1 .2389E+00 .4779E+00           .2378E+01          -.5000E+00
RR119              1 .2464E+00 .4928E+00           .2394E+01          -.5000E+00
RR120              1 .2541E+00 .5082E+00           .2411E+01          -.5000E+00
RR121              1 .2621E+00 .5241E+00           .2428E+01          -.5000E+00
RR122              1 .2703E+00 .5407E+00           .2445E+01          -.5000E+00
RR123              1 .2789E+00 .5578E+00           .2463E+01          -.5000E+00
RR124              1 .2877E+00 .5755E+00           .2481E+01          -.5000E+00
RR125              1 .2969E+00 .5939E+00           .2500E+01          -.5000E+00
RR126              1 .3064E+00 .6129E+00           .2519E+01          -.5000E+00
RR127              1 .3163E+00 .6326E+00           .2538E+01          -.5000E+00
RR128              1 .3265E+00 .6530E+00           .2559E+01          -.5000E+00
RR129              1 .3371E+00 .6742E+00           .2579E+01          -.5000E+00
RR130              1 .3481E+00 .6961E+00           .2600E+01          -.5000E+00
RR131              1 .3594E+00 .7189E+00           .2622E+01          -.5000E+00
RR132              1 .3712E+00 .7424E+00           .2644E+01          -.5000E+00
RR133              1 .3834E+00 .7669E+00           .2666E+01          -.5000E+00
RR134              1 .3961E+00 .7923E+00           .2690E+01          -.5000E+00
RR135              1 .4093E+00 .8186E+00           .2713E+01          -.5000E+00
RR136              1 .4229E+00 .8459E+00           .2738E+01          -.5000E+00
RR137              1 .4371E+00 .8742E+00           .2763E+01          -.5000E+00
RR138              1 .4518E+00 .9036E+00           .2788E+01          -.5000E+00
RR139              1 .4671E+00 .9342E+00           .2814E+01          -.5000E+00
RR140              1 .4829E+00 .9658E+00           .2841E+01          -.5000E+00
RR141              1 .4994E+00 .9987E+00           .2868E+01          -.5000E+00
RR142              1 .5164E+00 .1033E+01           .2896E+01          -.5000E+00
RR143              1 .5342E+00 .1068E+01           .2925E+01          -.5000E+00
RR144              1 .5526E+00 .1105E+01           .2954E+01          -.5000E+00
RR145              1 .5717E+00 .1143E+01           .2985E+01          -.5000E+00
RR146              1 .5916E+00 .1183E+01           .3015E+01          -.5000E+00
RR147              1 .6123E+00 .1225E+01           .3047E+01          -.5000E+00
RR148              1 .6337E+00 .1267E+01           .3079E+01          -.5000E+00
RR149              1 .6561E+00 .1312E+01           .3113E+01          -.5000E+00
RR150              1 .6793E+00 .1359E+01           .3146E+01          -.5000E+00
RR151              1 .7034E+00 .1407E+01           .3181E+01          -.5000E+00
RR152              1 .7285E+00 .1457E+01           .3217E+01          -.5000E+00
RR153              1 .7545E+00 .1509E+01           .3253E+01          -.5000E+00
RR154              1 .7817E+00 .1563E+01           .3291E+01          -.5000E+00
RR155              1 .8099E+00 .1620E+01           .3329E+01          -.5000E+00
RR156              1 .8392E+00 .1678E+01           .3368E+01          -.5000E+00
RR157              1 .8698E+00 .1740E+01           .3408E+01          -.5000E+00
RR158              1 .9015E+00 .1803E+01           .3449E+01          -.5000E+00
RR159              1 .9346E+00 .1869E+01           .3491E+01          -.5000E+00
RR160              1 .9690E+00 .1938E+01           .3535E+01          -.5000E+00
RR161              1 .1005E+01 .2010E+01           .3579E+01          -.5000E+00
RR162              1 .1042E+01 .2084E+01           .3624E+01          -.5000E+00
RR163              1 .1081E+01 .2162E+01           .3670E+01          -.5000E+00
RR164              1 .1121E+01 .2243E+01           .3718E+01          -.5000E+00
RR165              1 .1164E+01 .2327E+01           .3766E+01          -.5000E+00
RR166              1 .1208E+01 .2415E+01           .3816E+01          -.5000E+00
RR167              1 .1253E+01 .2506E+01           .3867E+01          -.5000E+00
RR168              1 .1301E+01 .2602E+01           .3919E+01          -.5000E+00
RR169              1 .1351E+01 .2701E+01           .3973E+01          -.5000E+00
RR170              1 .1402E+01 .2804E+01           .4028E+01          -.5000E+00
RR171              1 .1456E+01 .2912E+01           .4084E+01          -.5000E+00
RR172              1 .1512E+01 .3025E+01           .4141E+01          -.5000E+00
RR173              1 .1571E+01 .3142E+01           .4200E+01          -.5000E+00
RR174              1 .1632E+01 .3264E+01           .4260E+01          -.5000E+00
RR175              1 .1696E+01 .3391E+01           .4322E+01          -.5000E+00
RR176              1 .1762E+01 .3524E+01           .4385E+01          -.5000E+00
RR177              1 .1831E+01 .3663E+01           .4450E+01          -.5000E+00
RR178              1 .1904E+01 .3807E+01           .4516E+01          -.5000E+00
RR179              1 .1979E+01 .3958E+01           .4584E+01          -.5000E+00
RR180              1 .2058E+01 .4115E+01           .4653E+01          -.5000E+00
RR181              1 .2140E+01 .4279E+01           .4725E+01          -.5000E+00
RR182              1 .2225E+01 .4450E+01           .4798E+01          -.5000E+00
RR183              1 .2314E+01 .4629E+01           .4872E+01          -.5000E+00
RR184              1 .2408E+01 .4815E+01           .4949E+01          -.5000E+00
RR185              1 .2505E+01 .5010E+01           .5027E+01          -.5000E+00
RR186              1 .2606E+01 .5213E+01           .5107E+01          -.5000E+00
RR187              1 .2712E+01 .5425E+01           .5190E+01          -.5000E+00
RR188              1 .2823E+01 .5646E+01           .5274E+01          -.5000E+00
RR189              1 .2939E+01 .5877E+01           .5360E+01          -.5000E+00
RR190              1 .3059E+01 .6119E+01           .5448E+01          -.5000E+00
RR191              1 .3185E+01 .6371E+01           .5539E+01          -.5000E+00
RR192              1 .3317E+01 .6634E+01           .5632E+01          -.5000E+00
RR193              1 .3454E+01 .6909E+01           .5726E+01          -.5000E+00
RR194              1 .3598E+01 .7196E+01           .5824E+01          -.5000E+00
RR195              1 .3748E+01 .7496E+01           .5923E+01          -.5000E+00
RR196              1 .3905E+01 .7809E+01           .6025E+01          -.5000E+00
RR197              1 .4068E+01 .8137E+01           .6129E+01          -.5000E+00
RR198              1 .4240E+01 .8479E+01           .6236E+01          -.5000E+00
RR199              1 .4418E+01 .8837E+01           .6346E+01          -.5000E+00
RR2 0              1 .4605E+01 .9210E+01           .6458E+01          -.5000E+00
RR2 1              1 .4800E+01 .9601E+01           .6573E+01          -.5000E+00
RR2 2              1 .5004E+01 .1001E+02           .6690E+01          -.5000E+00
RR2 3              1 .5004E+51 .1001E+02           .6750E+01          -.5000E+00
     
CONNE
XX  1RR  2                   1 .8745E-10 .5000E-03 .1100E+02
RR  2RR  3                   1 .5000E-03 .5121E-03 .1100E+02
RR  3RR  4                   1 .5121E-03 .5245E-03 .1101E+02
RR  4RR  5                   1 .5245E-03 .5372E-03 .1101E+02
RR  5RR  6                   1 .5372E-03 .5502E-03 .1102E+02
RR  6RR  7                   1 .5502E-03 .5635E-03 .1103E+02
RR  7RR  8                   1 .5635E-03 .5771E-03 .1104E+02
RR  8RR  9                   1 .5771E-03 .5910E-03 .1104E+02
RR  9RR 10                   1 .5910E-03 .6053E-03 .1105E+02
RR 10RR 11                   1 .6053E-03 .6200E-03 .1106E+02
RR 11RR 12                   1 .6200E-03 .6350E-03 .1107E+02
RR 12RR 13                   1 .6350E-03 .6503E-03 .1107E+02
RR 13RR 14                   1 .6503E-03 .6661E-03 .1108E+02
RR 14RR 15                   1 .6661E-03 .6822E-03 .1109E+02
RR 15RR 16                   1 .6822E-03 .6987E-03 .1110E+02
RR 16RR 17                   1 .6987E-03 .7156E-03 .1111E+02
RR 17RR 18                   1 .7156E-03 .7329E-03 .1112E+02
RR 18RR 19                   1 .7329E-03 .7506E-03 .1113E+02
RR 19RR 20                   1 .7506E-03 .7687E-03 .1114E+02
RR 20RR 21                   1 .7687E-03 .7873E-03 .1114E+02
RR 21RR 22                   1 .7873E-03 .8064E-03 .1115E+02
RR 22RR 23                   1 .8064E-03 .8259E-03 .1116E+02
RR 23RR 24                   1 .8259E-03 .8459E-03 .1118E+02
RR 24RR 25                   1 .8459E-03 .8663E-03 .1119E+02
RR 25RR 26                   1 .8663E-03 .8873E-03 .1120E+02
RR 26RR 27                   1 .8873E-03 .9087E-03 .1121E+02
RR 27RR 28                   1 .9087E-03 .9307E-03 .1122E+02
RR 28RR 29                   1 .9307E-03 .9532E-03 .1123E+02
RR 29RR 30                   1 .9532E-03 .9763E-03 .1124E+02
RR 30RR 31                   1 .9763E-03 .9999E-03 .1126E+02
RR 31RR 32                   1 .9999E-03 .1024E-02 .1127E+02
RR 32RR 33                   1 .1024E-02 .1049E-02 .1128E+02
RR 33RR 34                   1 .1049E-02 .1074E-02 .1129E+02
RR 34RR 35                   1 .1074E-02 .1100E-02 .1131E+02
RR 35RR 36                   1 .1100E-02 .1127E-02 .1132E+02
RR 36RR 37                   1 .1127E-02 .1154E-02 .1134E+02
RR 37RR 38                   1 .1154E-02 .1182E-02 .1135E+02
RR 38RR 39                   1 .1182E-02 .1211E-02 .1136E+02
RR 39RR 40                   1 .1211E-02 .1240E-02 .1138E+02
RR 40RR 41                   1 .1240E-02 .1270E-02 .1140E+02
RR 41RR 42                   1 .1270E-02 .1301E-02 .1141E+02
RR 42RR 43                   1 .1301E-02 .1332E-02 .1143E+02
RR 43RR 44                   1 .1332E-02 .1364E-02 .1144E+02
RR 44RR 45                   1 .1364E-02 .1397E-02 .1146E+02
RR 45RR 46                   1 .1397E-02 .1431E-02 .1148E+02
RR 46RR 47                   1 .1431E-02 .1466E-02 .1150E+02
RR 47RR 48                   1 .1466E-02 .1501E-02 .1152E+02
RR 48RR 49                   1 .1501E-02 .1537E-02 .1153E+02
RR 49RR 50                   1 .1537E-02 .1575E-02 .1155E+02
RR 50RR 51                   1 .1575E-02 .1613E-02 .1157E+02
RR 51RR 52                   1 .1613E-02 .1652E-02 .1159E+02
RR 52RR 53                   1 .1652E-02 .1692E-02 .1161E+02
RR 53RR 54                   1 .1692E-02 .1732E-02 .1164E+02
RR 54RR 55                   1 .1732E-02 .1774E-02 .1166E+02
RR 55RR 56                   1 .1774E-02 .1817E-02 .1168E+02
RR 56RR 57                   1 .1817E-02 .1861E-02 .1170E+02
RR 57RR 58                   1 .1861E-02 .1906E-02 .1173E+02
RR 58RR 59                   1 .1906E-02 .1952E-02 .1175E+02
RR 59RR 60                   1 .1952E-02 .2000E-02 .1177E+02
RR 60RR 61                   1 .2000E-02 .2048E-02 .1180E+02
RR 61RR 62                   1 .2048E-02 .2097E-02 .1183E+02
RR 62RR 63                   1 .2097E-02 .2148E-02 .1185E+02
RR 63RR 64                   1 .2148E-02 .2200E-02 .1188E+02
RR 64RR 65                   1 .2200E-02 .2253E-02 .1191E+02
RR 65RR 66                   1 .2253E-02 .2308E-02 .1193E+02
RR 66RR 67                   1 .2308E-02 .2364E-02 .1196E+02
RR 67RR 68                   1 .2364E-02 .2421E-02 .1199E+02
RR 68RR 69                   1 .2421E-02 .2479E-02 .1202E+02
RR 69RR 70                   1 .2479E-02 .2539E-02 .1206E+02
RR 70RR 71                   1 .2539E-02 .2601E-02 .1209E+02
RR 71RR 72                   1 .2601E-02 .2664E-02 .1212E+02
RR 72RR 73                   1 .2664E-02 .2728E-02 .1215E+02
RR 73RR 74                   1 .2728E-02 .2794E-02 .1219E+02
RR 74RR 75                   1 .2794E-02 .2862E-02 .1222E+02
RR 75RR 76                   1 .2862E-02 .2931E-02 .1226E+02
RR 76RR 77                   1 .2931E-02 .3002E-02 .1230E+02
RR 77RR 78                   1 .3002E-02 .3074E-02 .1233E+02
RR 78RR 79                   1 .3074E-02 .3149E-02 .1237E+02
RR 79RR 80                   1 .3149E-02 .3225E-02 .1241E+02
RR 80RR 81                   1 .3225E-02 .3303E-02 .1245E+02
RR 81RR 82                   1 .3303E-02 .3383E-02 .1249E+02
RR 82RR 83                   1 .3383E-02 .3464E-02 .1254E+02
RR 83RR 84                   1 .3464E-02 .3548E-02 .1258E+02
RR 84RR 85                   1 .3548E-02 .3634E-02 .1262E+02
RR 85RR 86                   1 .3634E-02 .3722E-02 .1267E+02
RR 86RR 87                   1 .3722E-02 .3812E-02 .1272E+02
RR 87RR 88                   1 .3812E-02 .3904E-02 .1276E+02
RR 88RR 89                   1 .3904E-02 .3999E-02 .1281E+02
RR 89RR 90                   1 .3999E-02 .4095E-02 .1286E+02
RR 90RR 91                   1 .4095E-02 .4194E-02 .1292E+02
RR 91RR 92                   1 .4194E-02 .4296E-02 .1297E+02
RR 92RR 93                   1 .4296E-02 .4400E-02 .1302E+02
RR 93RR 94                   1 .4400E-02 .4506E-02 .1308E+02
RR 94RR 95                   1 .4506E-02 .4615E-02 .1313E+02
RR 95RR 96                   1 .4615E-02 .4727E-02 .1319E+02
RR 96RR 97                   1 .4727E-02 .4841E-02 .1325E+02
RR 97RR 98                   1 .4841E-02 .4958E-02 .1331E+02
RR 98RR 99                   1 .4958E-02 .5078E-02 .1337E+02
RR 99RR1 0                   1 .5078E-02 .5201E-02 .1344E+02
RR1 0RR1 1                   1 .5201E-02 .5327E-02 .1350E+02
RR1 1RR1 2                   1 .5327E-02 .5455E-02 .1357E+02
RR1 2RR1 3                   1 .5455E-02 .5587E-02 .1364E+02
RR1 3RR1 4                   1 .5587E-02 .5723E-02 .1371E+02
RR1 4RR1 5                   1 .5723E-02 .5861E-02 .1378E+02
RR1 5RR1 6                   1 .5861E-02 .6003E-02 .1385E+02
RR1 6RR1 7                   1 .6003E-02 .6148E-02 .1393E+02
RR1 7RR1 8                   1 .6148E-02 .6297E-02 .1401E+02
RR1 8RR1 9                   1 .6297E-02 .6449E-02 .1409E+02
RR1 9RR110                   1 .6449E-02 .6605E-02 .1417E+02
RR110RR111                   1 .6605E-02 .6765E-02 .1425E+02
RR111RR112                   1 .6765E-02 .6928E-02 .1434E+02
RR112RR113                   1 .6928E-02 .7096E-02 .1442E+02
RR113RR114                   1 .7096E-02 .7267E-02 .1451E+02
RR114RR115                   1 .7267E-02 .7443E-02 .1460E+02
RR115RR116                   1 .7443E-02 .7623E-02 .1470E+02
RR116RR117                   1 .7623E-02 .7807E-02 .1479E+02
RR117RR118                   1 .7807E-02 .7996E-02 .1489E+02
RR118RR119                   1 .7996E-02 .8190E-02 .1499E+02
RR119RR120                   1 .8190E-02 .8388E-02 .1509E+02
RR120RR121                   1 .8388E-02 .8591E-02 .1520E+02
RR121RR122                   1 .8591E-02 .8798E-02 .1531E+02
RR122RR123                   1 .8798E-02 .9011E-02 .1542E+02
RR123RR124                   1 .9011E-02 .9229E-02 .1553E+02
RR124RR125                   1 .9229E-02 .9452E-02 .1565E+02
RR125RR126                   1 .9452E-02 .9681E-02 .1577E+02
RR126RR127                   1 .9681E-02 .9915E-02 .1589E+02
RR127RR128                   1 .9915E-02 .1015E-01 .1601E+02
RR128RR129                   1 .1015E-01 .1040E-01 .1614E+02
RR129RR130                   1 .1040E-01 .1065E-01 .1627E+02
RR130RR131                   1 .1065E-01 .1091E-01 .1640E+02
RR131RR132                   1 .1091E-01 .1117E-01 .1654E+02
RR132RR133                   1 .1117E-01 .1144E-01 .1668E+02
RR133RR134                   1 .1144E-01 .1172E-01 .1683E+02
RR134RR135                   1 .1172E-01 .1200E-01 .1697E+02
RR135RR136                   1 .1200E-01 .1229E-01 .1712E+02
RR136RR137                   1 .1229E-01 .1259E-01 .1728E+02
RR137RR138                   1 .1259E-01 .1290E-01 .1744E+02
RR138RR139                   1 .1290E-01 .1321E-01 .1760E+02
RR139RR140                   1 .1321E-01 .1353E-01 .1776E+02
RR140RR141                   1 .1353E-01 .1385E-01 .1793E+02
RR141RR142                   1 .1385E-01 .1419E-01 .1811E+02
RR142RR143                   1 .1419E-01 .1453E-01 .1829E+02
RR143RR144                   1 .1453E-01 .1488E-01 .1847E+02
RR144RR145                   1 .1488E-01 .1524E-01 .1866E+02
RR145RR146                   1 .1524E-01 .1561E-01 .1885E+02
RR146RR147                   1 .1561E-01 .1599E-01 .1904E+02
RR147RR148                   1 .1599E-01 .1638E-01 .1925E+02
RR148RR149                   1 .1638E-01 .1677E-01 .1945E+02
RR149RR150                   1 .1677E-01 .1718E-01 .1966E+02
RR150RR151                   1 .1718E-01 .1759E-01 .1988E+02
RR151RR152                   1 .1759E-01 .1802E-01 .2010E+02
RR152RR153                   1 .1802E-01 .1846E-01 .2033E+02
RR153RR154                   1 .1846E-01 .1890E-01 .2056E+02
RR154RR155                   1 .1890E-01 .1936E-01 .2079E+02
RR155RR156                   1 .1936E-01 .1983E-01 .2104E+02
RR156RR157                   1 .1983E-01 .2031E-01 .2129E+02
RR157RR158                   1 .2031E-01 .2080E-01 .2154E+02
RR158RR159                   1 .2080E-01 .2130E-01 .2180E+02
RR159RR160                   1 .2130E-01 .2182E-01 .2207E+02
RR160RR161                   1 .2182E-01 .2234E-01 .2235E+02
RR161RR162                   1 .2234E-01 .2288E-01 .2263E+02
RR162RR163                   1 .2288E-01 .2344E-01 .2291E+02
RR163RR164                   1 .2344E-01 .2401E-01 .2321E+02
RR164RR165                   1 .2401E-01 .2459E-01 .2351E+02
RR165RR166                   1 .2459E-01 .2518E-01 .2382E+02
RR166RR167                   1 .2518E-01 .2579E-01 .2414E+02
RR167RR168                   1 .2579E-01 .2641E-01 .2446E+02
RR168RR169                   1 .2641E-01 .2705E-01 .2479E+02
RR169RR170                   1 .2705E-01 .2771E-01 .2513E+02
RR170RR171                   1 .2771E-01 .2838E-01 .2548E+02
RR171RR172                   1 .2838E-01 .2906E-01 .2584E+02
RR172RR173                   1 .2906E-01 .2977E-01 .2620E+02
RR173RR174                   1 .2977E-01 .3049E-01 .2658E+02
RR174RR175                   1 .3049E-01 .3122E-01 .2696E+02
RR175RR176                   1 .3122E-01 .3198E-01 .2735E+02
RR176RR177                   1 .3198E-01 .3275E-01 .2775E+02
RR177RR178                   1 .3275E-01 .3354E-01 .2816E+02
RR178RR179                   1 .3354E-01 .3435E-01 .2859E+02
RR179RR180                   1 .3435E-01 .3519E-01 .2902E+02
RR180RR181                   1 .3519E-01 .3604E-01 .2946E+02
RR181RR182                   1 .3604E-01 .3691E-01 .2991E+02
RR182RR183                   1 .3691E-01 .3780E-01 .3038E+02
RR183RR184                   1 .3780E-01 .3871E-01 .3085E+02
RR184RR185                   1 .3871E-01 .3965E-01 .3134E+02
RR185RR186                   1 .3965E-01 .4061E-01 .3184E+02
RR186RR187                   1 .4061E-01 .4159E-01 .3235E+02
RR187RR188                   1 .4159E-01 .4260E-01 .3287E+02
RR188RR189                   1 .4260E-01 .4363E-01 .3340E+02
RR189RR190                   1 .4363E-01 .4468E-01 .3395E+02
RR190RR191                   1 .4468E-01 .4576E-01 .3451E+02
RR191RR192                   1 .4576E-01 .4687E-01 .3509E+02
RR192RR193                   1 .4687E-01 .4800E-01 .3568E+02
RR193RR194                   1 .4800E-01 .4917E-01 .3628E+02
RR194RR195                   1 .4917E-01 .5035E-01 .3690E+02
RR195RR196                   1 .5035E-01 .5157E-01 .3753E+02
RR196RR197                   1 .5157E-01 .5282E-01 .3818E+02
RR197RR198                   1 .5282E-01 .5410E-01 .3884E+02
RR198RR199                   1 .5410E-01 .5541E-01 .3952E+02
RR199RR2 0                   1 .5541E-01 .5675E-01 .4022E+02
RR2 0RR2 1                   1 .5675E-01 .5812E-01 .4093E+02
RR2 1RR2 2                   1 .5812E-01 .5952E-01 .4166E+02
RR2 2RR2 3                   1 .5952E-01 .5952E-11 .4231E+02
     
     
INCON -- INITIAL CONDITIONS FOR  203 ELEMENTS AT TIME   .900000E+01
XX  1            .10000000E-01
  .1000000000000E+06  .1300000000000E+02  .9897536985191E+05
RR  2            .10000000E-01